9852086
  -OEChem-01232502233D

106110  0     1  0  0  0  0  0999 V2000
   -0.2027    0.5068   -2.6125 O   0  0  0  0  0  0  0  0  0  0  0  0
    1.9676    0.5713   -0.5562 O   0  0  0  0  0  0  0  0  0  0  0  0
   -7.7081    1.9493   -0.5421 O   0  0  0  0  0  0  0  0  0  0  0  0
    3.6874    1.1028    0.9284 O   0  0  0  0  0  0  0  0  0  0  0  0
    2.5713    2.8957   -2.0531 O   0  0  0  0  0  0  0  0  0  0  0  0
    3.7920    4.9934   -0.3828 O   0  0  0  0  0  0  0  0  0  0  0  0
    6.0163    3.9228    1.1214 O   0  0  0  0  0  0  0  0  0  0  0  0
    5.5458   -0.0049    2.6240 O   0  0  0  0  0  0  0  0  0  0  0  0
   -2.5192   -0.7004    0.8289 C   0  0  1  0  0  0  0  0  0  0  0  0
   -1.2601   -1.5902    0.3871 C   0  0  1  0  0  0  0  0  0  0  0  0
   -3.2731   -0.2467   -0.4918 C   0  0  1  0  0  0  0  0  0  0  0  0
   -4.7038    0.4281   -0.3106 C   0  0  2  0  0  0  0  0  0  0  0  0
   -0.3370   -0.7468   -0.5358 C   0  0  1  0  0  0  0  0  0  0  0  0
   -5.5642   -0.4884    0.6308 C   0  0  1  0  0  0  0  0  0  0  0  0
   -3.5011   -1.5089    1.7143 C   0  0  0  0  0  0  0  0  0  0  0  0
    0.9495   -1.5821   -0.6627 C   0  0  2  0  0  0  0  0  0  0  0  0
   -2.3197    0.4980   -1.4654 C   0  0  0  0  0  0  0  0  0  0  0  0
   -1.0526   -0.3086   -1.8118 C   0  0  1  0  0  0  0  0  0  0  0  0
   -0.2371   -1.9758    1.4789 C   0  0  0  0  0  0  0  0  0  0  0  0
   -4.8427   -0.8089    1.9574 C   0  0  0  0  0  0  0  0  0  0  0  0
   -7.0770   -0.0570    0.8075 C   0  0  0  0  0  0  0  0  0  0  0  0
    1.0707   -2.2712    0.7170 C   0  0  0  0  0  0  0  0  0  0  0  0
   -5.4015    0.4862   -1.7169 C   0  0  0  0  0  0  0  0  0  0  0  0
   -2.0458    0.5182    1.6733 C   0  0  0  0  0  0  0  0  0  0  0  0
   -1.6990   -2.9325   -0.2894 C   0  0  0  0  0  0  0  0  0  0  0  0
   -4.5916    1.8789    0.2105 C   0  0  0  0  0  0  0  0  0  0  0  0
    2.1962   -0.7702   -0.9953 C   0  0  2  0  0  0  0  0  0  0  0  0
   -7.6627    0.5252   -0.5209 C   0  0  2  0  0  0  0  0  0  0  0  0
   -6.8761    0.0675   -1.7431 C   0  0  0  0  0  0  0  0  0  0  0  0
   -7.8954   -1.3419    1.1292 C   0  0  0  0  0  0  0  0  0  0  0  0
   -7.3036    0.9036    1.9936 C   0  0  0  0  0  0  0  0  0  0  0  0
    3.4643   -1.3235   -0.3084 C   0  0  0  0  0  0  0  0  0  0  0  0
    2.4027   -0.7367   -2.5144 C   0  0  0  0  0  0  0  0  0  0  0  0
    3.7696   -2.7915   -0.6315 C   0  0  0  0  0  0  0  0  0  0  0  0
    3.1967    1.2795   -0.3985 C   0  0  2  0  0  0  0  0  0  0  0  0
    2.9272    2.7581   -0.6777 C   0  0  1  0  0  0  0  0  0  0  0  0
    4.9722   -3.2741    0.1318 C   0  0  0  0  0  0  0  0  0  0  0  0
    4.1601    3.6132   -0.3845 C   0  0  2  0  0  0  0  0  0  0  0  0
    4.9327    1.7685    1.1454 C   0  0  1  0  0  0  0  0  0  0  0  0
    4.7516    3.2798    0.9851 C   0  0  1  0  0  0  0  0  0  0  0  0
    6.2538   -3.2930   -0.2811 C   0  0  0  0  0  0  0  0  0  0  0  0
    5.4118    1.4026    2.5466 C   0  0  0  0  0  0  0  0  0  0  0  0
    6.6198   -2.8066   -1.6578 C   0  0  0  0  0  0  0  0  0  0  0  0
    7.4148   -3.7900    0.5330 C   0  0  0  0  0  0  0  0  0  0  0  0
   -3.5246   -1.1777   -1.0148 H   0  0  0  0  0  0  0  0  0  0  0  0
   -0.0853    0.1671    0.0102 H   0  0  0  0  0  0  0  0  0  0  0  0
   -5.6051   -1.4576    0.1061 H   0  0  0  0  0  0  0  0  0  0  0  0
   -3.7371   -2.4721    1.2517 H   0  0  0  0  0  0  0  0  0  0  0  0
   -3.0347   -1.7401    2.6800 H   0  0  0  0  0  0  0  0  0  0  0  0
    0.8163   -2.3761   -1.4078 H   0  0  0  0  0  0  0  0  0  0  0  0
   -2.0152    1.4662   -1.0527 H   0  0  0  0  0  0  0  0  0  0  0  0
   -2.8313    0.7426   -2.4031 H   0  0  0  0  0  0  0  0  0  0  0  0
   -1.3199   -1.1805   -2.4183 H   0  0  0  0  0  0  0  0  0  0  0  0
   -0.5577   -2.8318    2.0822 H   0  0  0  0  0  0  0  0  0  0  0  0
   -0.0343   -1.1538    2.1699 H   0  0  0  0  0  0  0  0  0  0  0  0
   -5.4543   -1.4860    2.5637 H   0  0  0  0  0  0  0  0  0  0  0  0
   -4.7054    0.0900    2.5641 H   0  0  0  0  0  0  0  0  0  0  0  0
    1.8709   -1.9613    1.3840 H   0  0  0  0  0  0  0  0  0  0  0  0
    1.1464   -3.3575    0.5932 H   0  0  0  0  0  0  0  0  0  0  0  0
   -5.3089    1.4956   -2.1391 H   0  0  0  0  0  0  0  0  0  0  0  0
   -4.8910   -0.1688   -2.4341 H   0  0  0  0  0  0  0  0  0  0  0  0
   -1.4445    1.2335    1.1090 H   0  0  0  0  0  0  0  0  0  0  0  0
   -2.8690    1.0866    2.0997 H   0  0  0  0  0  0  0  0  0  0  0  0
   -1.4659    0.2068    2.5459 H   0  0  0  0  0  0  0  0  0  0  0  0
   -2.1936   -3.5934    0.4296 H   0  0  0  0  0  0  0  0  0  0  0  0
   -0.8565   -3.5136   -0.6753 H   0  0  0  0  0  0  0  0  0  0  0  0
   -2.3730   -2.7960   -1.1363 H   0  0  0  0  0  0  0  0  0  0  0  0
   -5.4820    2.4693   -0.0118 H   0  0  0  0  0  0  0  0  0  0  0  0
   -3.7647    2.4214   -0.2546 H   0  0  0  0  0  0  0  0  0  0  0  0
   -4.4645    1.9385    1.2903 H   0  0  0  0  0  0  0  0  0  0  0  0
   -8.7045    0.2016   -0.6353 H   0  0  0  0  0  0  0  0  0  0  0  0
   -7.3289    0.4726   -2.6567 H   0  0  0  0  0  0  0  0  0  0  0  0
   -6.9390   -1.0246   -1.8278 H   0  0  0  0  0  0  0  0  0  0  0  0
   -7.5645   -1.8186    2.0570 H   0  0  0  0  0  0  0  0  0  0  0  0
   -7.8119   -2.0815    0.3250 H   0  0  0  0  0  0  0  0  0  0  0  0
   -8.9600   -1.1095    1.2524 H   0  0  0  0  0  0  0  0  0  0  0  0
   -6.7211    1.8230    1.9026 H   0  0  0  0  0  0  0  0  0  0  0  0
   -7.0439    0.4394    2.9510 H   0  0  0  0  0  0  0  0  0  0  0  0
   -8.3592    1.1935    2.0592 H   0  0  0  0  0  0  0  0  0  0  0  0
   -0.6984    0.7522   -3.4121 H   0  0  0  0  0  0  0  0  0  0  0  0
    3.4706   -1.1766    0.7750 H   0  0  0  0  0  0  0  0  0  0  0  0
    4.3685   -0.8041   -0.6464 H   0  0  0  0  0  0  0  0  0  0  0  0
    2.0616   -1.6500   -3.0126 H   0  0  0  0  0  0  0  0  0  0  0  0
    1.9504    0.1283   -2.9991 H   0  0  0  0  0  0  0  0  0  0  0  0
    3.4685   -0.6442   -2.7613 H   0  0  0  0  0  0  0  0  0  0  0  0
   -8.1220    2.2220   -1.3786 H   0  0  0  0  0  0  0  0  0  0  0  0
    2.9532   -3.4709   -0.3887 H   0  0  0  0  0  0  0  0  0  0  0  0
    3.9120   -2.9223   -1.7092 H   0  0  0  0  0  0  0  0  0  0  0  0
    3.9410    0.9815   -1.1474 H   0  0  0  0  0  0  0  0  0  0  0  0
    2.0684    3.1078   -0.0925 H   0  0  0  0  0  0  0  0  0  0  0  0
    4.7599   -3.6289    1.1394 H   0  0  0  0  0  0  0  0  0  0  0  0
    4.9129    3.4994   -1.1734 H   0  0  0  0  0  0  0  0  0  0  0  0
    5.6657    1.3802    0.4251 H   0  0  0  0  0  0  0  0  0  0  0  0
    4.0985    3.6723    1.7741 H   0  0  0  0  0  0  0  0  0  0  0  0
    3.3244    2.6001   -2.5925 H   0  0  0  0  0  0  0  0  0  0  0  0
    6.3793    1.8607    2.7729 H   0  0  0  0  0  0  0  0  0  0  0  0
    4.6801    1.7095    3.3014 H   0  0  0  0  0  0  0  0  0  0  0  0
    3.1095    5.1237    0.2976 H   0  0  0  0  0  0  0  0  0  0  0  0
    7.4907   -2.1437   -1.5972 H   0  0  0  0  0  0  0  0  0  0  0  0
    5.8393   -2.2322   -2.1608 H   0  0  0  0  0  0  0  0  0  0  0  0
    6.8849   -3.6557   -2.2962 H   0  0  0  0  0  0  0  0  0  0  0  0
    7.0925   -4.1529    1.5144 H   0  0  0  0  0  0  0  0  0  0  0  0
    8.1398   -2.9860    0.6953 H   0  0  0  0  0  0  0  0  0  0  0  0
    7.9156   -4.6162    0.0184 H   0  0  0  0  0  0  0  0  0  0  0  0
    6.6077    3.5709    0.4344 H   0  0  0  0  0  0  0  0  0  0  0  0
    5.8469   -0.2158    3.5241 H   0  0  0  0  0  0  0  0  0  0  0  0
  1 18  1  0  0  0  0
  1 80  1  0  0  0  0
  2 27  1  0  0  0  0
  2 35  1  0  0  0  0
  3 28  1  0  0  0  0
  3 86  1  0  0  0  0
  4 35  1  0  0  0  0
  4 39  1  0  0  0  0
  5 36  1  0  0  0  0
  5 95  1  0  0  0  0
  6 38  1  0  0  0  0
  6 98  1  0  0  0  0
  7 40  1  0  0  0  0
  7105  1  0  0  0  0
  8 42  1  0  0  0  0
  8106  1  0  0  0  0
  9 10  1  0  0  0  0
  9 11  1  0  0  0  0
  9 15  1  0  0  0  0
  9 24  1  0  0  0  0
 10 13  1  0  0  0  0
 10 19  1  0  0  0  0
 10 25  1  0  0  0  0
 11 12  1  0  0  0  0
 11 17  1  0  0  0  0
 11 45  1  0  0  0  0
 12 14  1  0  0  0  0
 12 23  1  0  0  0  0
 12 26  1  0  0  0  0
 13 16  1  0  0  0  0
 13 18  1  0  0  0  0
 13 46  1  0  0  0  0
 14 20  1  0  0  0  0
 14 21  1  0  0  0  0
 14 47  1  0  0  0  0
 15 20  1  0  0  0  0
 15 48  1  0  0  0  0
 15 49  1  0  0  0  0
 16 22  1  0  0  0  0
 16 27  1  0  0  0  0
 16 50  1  0  0  0  0
 17 18  1  0  0  0  0
 17 51  1  0  0  0  0
 17 52  1  0  0  0  0
 18 53  1  0  0  0  0
 19 22  1  0  0  0  0
 19 54  1  0  0  0  0
 19 55  1  0  0  0  0
 20 56  1  0  0  0  0
 20 57  1  0  0  0  0
 21 28  1  0  0  0  0
 21 30  1  0  0  0  0
 21 31  1  0  0  0  0
 22 58  1  0  0  0  0
 22 59  1  0  0  0  0
 23 29  1  0  0  0  0
 23 60  1  0  0  0  0
 23 61  1  0  0  0  0
 24 62  1  0  0  0  0
 24 63  1  0  0  0  0
 24 64  1  0  0  0  0
 25 65  1  0  0  0  0
 25 66  1  0  0  0  0
 25 67  1  0  0  0  0
 26 68  1  0  0  0  0
 26 69  1  0  0  0  0
 26 70  1  0  0  0  0
 27 32  1  0  0  0  0
 27 33  1  0  0  0  0
 28 29  1  0  0  0  0
 28 71  1  0  0  0  0
 29 72  1  0  0  0  0
 29 73  1  0  0  0  0
 30 74  1  0  0  0  0
 30 75  1  0  0  0  0
 30 76  1  0  0  0  0
 31 77  1  0  0  0  0
 31 78  1  0  0  0  0
 31 79  1  0  0  0  0
 32 34  1  0  0  0  0
 32 81  1  0  0  0  0
 32 82  1  0  0  0  0
 33 83  1  0  0  0  0
 33 84  1  0  0  0  0
 33 85  1  0  0  0  0
 34 37  1  0  0  0  0
 34 87  1  0  0  0  0
 34 88  1  0  0  0  0
 35 36  1  0  0  0  0
 35 89  1  0  0  0  0
 36 38  1  0  0  0  0
 36 90  1  0  0  0  0
 37 41  2  0  0  0  0
 37 91  1  0  0  0  0
 38 40  1  0  0  0  0
 38 92  1  0  0  0  0
 39 40  1  0  0  0  0
 39 42  1  0  0  0  0
 39 93  1  0  0  0  0
 40 94  1  0  0  0  0
 41 43  1  0  0  0  0
 41 44  1  0  0  0  0
 42 96  1  0  0  0  0
 42 97  1  0  0  0  0
 43 99  1  0  0  0  0
 43100  1  0  0  0  0
 43101  1  0  0  0  0
 44102  1  0  0  0  0
 44103  1  0  0  0  0
 44104  1  0  0  0  0
M  END
> <PUBCHEM_COMPOUND_CID>
9852086

> <PUBCHEM_CONFORMER_RMSD>
1.2

> <PUBCHEM_CONFORMER_DIVERSEORDER>
3
16
13
8
14
9
15
17
10
6
11
12
4
1
2
7
5

> <PUBCHEM_MMFF94_PARTIAL_CHARGES>
29
1 -0.68
105 0.4
106 0.4
18 0.28
2 -0.56
27 0.28
28 0.28
3 -0.68
34 0.14
35 0.56
36 0.28
37 -0.29
38 0.28
39 0.28
4 -0.56
40 0.28
41 -0.28
42 0.28
43 0.14
44 0.14
5 -0.68
6 -0.68
7 -0.68
8 -0.68
80 0.4
86 0.4
91 0.15
95 0.4
98 0.4

> <PUBCHEM_EFFECTIVE_ROTOR_COUNT>
10.4

> <PUBCHEM_PHARMACOPHORE_FEATURES>
21
1 1 acceptor
1 1 donor
1 2 acceptor
1 3 acceptor
1 3 donor
1 4 acceptor
1 5 acceptor
1 5 donor
1 6 acceptor
1 6 donor
1 7 acceptor
1 7 donor
1 8 acceptor
1 8 donor
3 21 30 31 hydrophobe
3 41 43 44 hydrophobe
5 10 13 16 19 22 rings
6 12 14 21 23 28 29 rings
6 4 35 36 38 39 40 rings
6 9 10 11 13 17 18 rings
6 9 11 12 14 15 20 rings

> <PUBCHEM_HEAVY_ATOM_COUNT>
44

> <PUBCHEM_ATOM_DEF_STEREO_COUNT>
15

> <PUBCHEM_ATOM_UDEF_STEREO_COUNT>
0

> <PUBCHEM_BOND_DEF_STEREO_COUNT>
0

> <PUBCHEM_BOND_UDEF_STEREO_COUNT>
0

> <PUBCHEM_ISOTOPIC_ATOM_COUNT>
0

> <PUBCHEM_COMPONENT_COUNT>
1

> <PUBCHEM_CACTVS_TAUTO_COUNT>
1

> <PUBCHEM_CONFORMER_ID>
009654B600000003

> <PUBCHEM_MMFF94_ENERGY>
215.6119

> <PUBCHEM_FEATURE_SELFOVERLAP>
106.723

> <PUBCHEM_SHAPE_FINGERPRINT>
10050765 1 18339643459284086967
10319926 262 16877942741874270331
10439779 11 17692537710511471169
10692045 39 18334009484551239091
11297750 10 18116144486061771348
11456790 92 18190195489852672259
11505856 67 17118604113313293788
11578080 2 18340771562503461931
12047536 79 18188195538279113536
12107698 1 18200313212688457214
12120059 20 10663515124818080797
12166972 35 18271806765999191178
12422481 6 17095795620573054437
12660671 118 18130240302502548684
13383668 251 18338786901735520678
13383668 362 18115031921643520114
13782708 43 18187088338955361075
13811026 1 18335698300004512690
14068700 675 18129096719845686456
14849402 71 18410863144399758412
15064986 96 18261667156315948896
15131766 46 17986659579360823952
15183329 4 16702302369624194553
15274700 34 17388833156557319971
15439362 3 18339644564102537946
15840311 113 17060328597029766794
16096371 109 18341328993914349952
16994733 274 17561089124943780777
21033648 29 18113903792611142859
21223535 225 18196094335598010709
21859007 373 17604413121013699157
21927370 108 18126001560660531382
22311459 1 18340489941593302526
23559900 14 17749119884646803543
24204213 265 17488466283092219862
249057 25 17346323661356657883
3044373 193 18412548729515314627
397830 11 18261958552514444347
4112364 45 16845562120288999434
4149490 64 18412825807126574251
563151 74 18341047522810437716
58083652 198 18272367539185006089
6086070 43 18190454957380177213
6371380 46 18186807945920337426
9962374 69 18342167860903983071

> <PUBCHEM_SHAPE_MULTIPOLES>
858.54
21.56
4.56
2.22
18.23
2.96
-0.04
-0.86
-4.77
-13.32
-0.15
-0.11
0.35
2.27

> <PUBCHEM_SHAPE_SELFOVERLAP>
1792.07

> <PUBCHEM_SHAPE_VOLUME>
483.8

> <PUBCHEM_COORDINATE_TYPE>
2
5
10

$$$$
