%nprocshared=64
%mem=100GB
%chk=4_H3O+.chk
# freq HF/6-311+g(d,p) scrf=(smd,solvent=water) geom=connectivity

4_H3O+

0 1
 O                 -1.12823800    0.63904700   -1.60489900
 C                  2.11270000   -0.89702300    0.45396900
 O                  1.00849600   -2.95386800    0.68714000
 C                  0.91491200   -1.75718200    0.15204000
 O                  3.31093900   -1.65776800    0.50275900
 H                  3.21218000   -2.33931500    1.19065800
 C                 -0.22346600   -1.24948400   -0.45541700
 C                 -1.56131500   -1.94516600   -0.40581100
 H                 -1.66430300   -2.47005900    0.54871000
 H                 -1.63376100   -2.70098000   -1.19720400
 C                 -2.68824400   -0.92007800   -0.52915000
 H                 -3.64989300   -1.42677400   -0.65360500
 H                 -2.73706900   -0.32334800    0.38733400
 C                 -2.48696100    0.02096000   -1.70904400
 C                 -0.10878600    0.01309600   -1.06697100
 C                  1.16125700    0.71846300   -1.20660400
 C                  1.26982700    1.86113400   -2.01851600
 H                  0.39671000    2.23300400   -2.54156100
 C                  2.49452900    2.50625200   -2.14680100
 H                  2.57909800    3.38680400   -2.77625300
 C                  3.61551600    2.01704300   -1.46444200
 H                  4.57427100    2.51707600   -1.56619400
 C                  3.50897200    0.89045500   -0.64716000
 H                  4.37495900    0.52776000   -0.10499600
 C                  2.28602400    0.23103500   -0.52047500
 C                 -3.42976200    1.21149000   -1.65146400
 H                 -4.46075900    0.85701600   -1.75276100
 H                 -3.33280400    1.73545500   -0.69505200
 H                 -3.22150900    1.91111700   -2.46754900
 C                 -2.52222000   -0.67655700   -3.06425000
 H                 -3.51078800   -1.12450400   -3.21043200
 H                 -2.34337400    0.04428300   -3.86825900
 H                 -1.76908800   -1.46750100   -3.13036700
 C                  1.85291200   -0.26255500    1.90779700
 H                  1.83836400   -1.11609900    2.59495500
 H                  2.75876100    0.32092600    2.09826400
 C                  0.61285300    0.56386800    2.06226900
 C                  0.55900000    1.90976700    1.65709800
 H                  1.45994800    2.38380300    1.27194100
 C                 -0.62200600    2.64521000    1.71433900
 H                 -0.63295800    3.68161300    1.38190400
 C                 -1.83964200    2.07428900    2.19193700
 C                 -1.76013400    0.71655900    2.62868600
 H                 -2.66380200    0.24360100    3.00830500
 C                 -0.57509500   -0.00652500    2.55358300
 H                 -0.56747800   -1.04928400    2.86821900
 O                 -2.96623700    2.75028600    2.22689400
 H                  0.25476100   -3.60494700    0.51339200
 H                 -1.33284600   -4.84978000   -0.26150400
 H                 -0.05021500   -5.65853900    0.01084400
 O                 -0.63791400   -4.99040300    0.40529600

 1 14 1.0 15 1.5
 2 4 1.0 5 1.0 25 1.0 34 1.0
 3 4 1.5 48 1.0
 4 7 1.5
 5 6 1.0
 6
 7 8 1.0 15 1.5
 8 9 1.0 10 1.0 11 1.0
 9
 10
 11 12 1.0 13 1.0 14 1.0
 12
 13
 14 26 1.0 30 1.0
 15 16 1.0
 16 17 1.5 25 1.5
 17 18 1.0 19 1.5
 18
 19 20 1.0 21 1.5
 20
 21 22 1.0 23 1.5
 22
 23 24 1.0 25 1.5
 24
 25
 26 27 1.0 28 1.0 29 1.0
 27
 28
 29
 30 31 1.0 32 1.0 33 1.0
 31
 32
 33
 34 35 1.0 36 1.0 37 1.0
 35
 36
 37 38 1.5 45 1.5
 38 39 1.0 40 1.5
 39
 40 41 1.0 42 1.5
 41
 42 43 1.5 47 1.5
 43 44 1.0 45 1.5
 44
 45 46 1.0
 46
 47
 48
 49 51 1.0
 50 51 1.0
 51

