%nprocshared=64
%mem=100GB
%chk=5.chk
# freq HF/6-311+g(d,p) scrf=(smd,solvent=water) geom=connectivity

5

0 1
 C                  0.00000800    1.39812400    0.00000000
 C                 -0.00000200    0.64420900    1.24608200
 C                 -0.00000200   -0.70980600    1.25056200
 C                  0.00003300   -1.46955300    0.00000000
 C                 -0.00000200   -0.70980600   -1.25056200
 C                 -0.00000200    0.64420900   -1.24608200
 O                 -0.00003200   -2.72480100    0.00000000
 C                  0.00001300    2.75406900    0.00000000
 H                 -0.00001100    1.20486000    2.17731400
 H                 -0.00001700   -1.27704300    2.17689300
 H                 -0.00001700   -1.27704300   -2.17689300
 H                 -0.00001100    1.20486000   -2.17731400
 H                  0.00001500    3.31704500    0.92947800
 H                  0.00001500    3.31704500   -0.92947800

 1 2 1.0 6 1.0 8 2.0
 2 3 2.0 9 1.0
 3 4 1.0 10 1.0
 4 5 1.0 7 2.0
 5 6 2.0 11 1.0
 6 12 1.0
 7
 8 13 1.0 14 1.0
 9
 10
 11
 12
 13
 14

