%nprocshared=64
%mem=100GB
%chk=6.chk
# freq HF/6-311+g(d,p) scrf=(smd,solvent=water) geom=connectivity

6

0 1
 C                 -3.43826600   -2.08244300    0.02336700
 C                 -2.28089000   -2.89537600   -0.05080200
 C                 -1.02828100   -2.31706000   -0.10462100
 C                 -0.87541500   -0.90544700   -0.08893200
 C                 -2.04800200   -0.08409300   -0.00830200
 C                 -3.32455700   -0.70744800    0.04622000
 C                  0.40580800   -0.27762200   -0.15137900
 C                  0.54111500    1.10120500   -0.14413900
 C                 -0.63659200    1.88763500   -0.03177700
 C                 -1.89366600    1.32363500    0.02764500
 O                  1.48198800   -1.12925400   -0.24079200
 C                  2.80896200   -0.58720600    0.07160000
 C                  2.96659400    0.74489900   -0.66436800
 C                  1.89863300    1.75546800   -0.24055500
 C                  3.78386800   -1.62954200   -0.45789300
 C                  2.92817000   -0.44427400    1.58984600
 H                 -4.42082700   -2.54463800    0.06452700
 H                 -2.38038100   -3.97717300   -0.06399500
 H                 -0.14248700   -2.94022800   -0.15984100
 H                 -4.21233000   -0.08660000    0.10535300
 H                  3.96671000    1.14719700   -0.47460300
 H                  2.88580700    0.55018000   -1.74044600
 H                  1.87553900    2.57436600   -0.97139000
 H                  2.16347200    2.20877400    0.72508600
 H                  3.67824800   -1.74472700   -1.54220100
 H                  4.81144900   -1.32014200   -0.23947500
 H                  3.60716900   -2.60002700    0.01903900
 H                  2.82937300   -1.42423000    2.06897700
 H                  3.90861000   -0.02854800    1.84731800
 H                  2.15892100    0.21733400    1.99932000
 O                 -3.02867700    2.11293100    0.13232600
 H                 -2.75070300    3.04606200    0.15533100
 O                 -0.59635200    3.27098800    0.01980900
 H                  0.32088600    3.59110100    0.02078800

 1 2 1.5 6 2.0 17 1.0
 2 3 2.0 18 1.0
 3 4 1.5 19 1.0
 4 5 1.5 7 1.5
 5 6 1.5 10 1.5
 6 20 1.0
 7 8 2.0 11 1.0
 8 9 1.5 14 1.0
 9 10 2.0 33 1.0
 10 31 1.0
 11 12 1.0
 12 13 1.0 15 1.0 16 1.0
 13 14 1.0 21 1.0 22 1.0
 14 23 1.0 24 1.0
 15 25 1.0 26 1.0 27 1.0
 16 28 1.0 29 1.0 30 1.0
 17
 18
 19
 20
 21
 22
 23
 24
 25
 26
 27
 28
 29
 30
 31 32 1.0
 32
 33 34 1.0
 34

